# generated using pymatgen
data_CuPS3
_symmetry_space_group_name_H-M   'P 1'
_cell_length_a   5.25650000
_cell_length_b   5.25650000
_cell_length_c   15.06600000
_cell_angle_alpha   90.00000000
_cell_angle_beta   90.00000000
_cell_angle_gamma   90.00000000
_symmetry_Int_Tables_number   1
_chemical_formula_structural   CuPS3
_chemical_formula_sum   'Cu4 P4 S12'
_cell_volume   416.28551604
_cell_formula_units_Z   4
loop_
 _symmetry_equiv_pos_site_id
 _symmetry_equiv_pos_as_xyz
  1  'x, y, z'
loop_
 _atom_type_symbol
 _atom_type_oxidation_number
  Cu+  1.0
  P5+  5.0
  S2-  -2.0
loop_
 _atom_site_type_symbol
 _atom_site_label
 _atom_site_symmetry_multiplicity
 _atom_site_fract_x
 _atom_site_fract_y
 _atom_site_fract_z
 _atom_site_occupancy
  Cu+  Cu1  1  0.00000000  0.50000000  0.25000000  1.0
  Cu+  Cu1  1  0.50000000  0.00000000  0.75000000  1.0
  Cu+  Cu1  1  0.00000000  0.50000000  0.75000000  1.0
  Cu+  Cu1  1  0.50000000  0.00000000  0.25000000  1.0
  P5+  P1  1  0.50000000  0.50000000  0.40562000  1.0
  P5+  P1  1  0.00000000  0.00000000  0.90562000  1.0
  P5+  P1  1  0.50000000  0.50000000  0.59438000  1.0
  P5+  P1  1  0.00000000  0.00000000  0.09438000  1.0
  S2-  S1  1  0.28959000  0.71041000  0.50000000  1.0
  S2-  S1  1  0.71041000  0.28959000  0.50000000  1.0
  S2-  S1  1  0.21041000  0.21041000  0.00000000  1.0
  S2-  S1  1  0.78959000  0.78959000  0.00000000  1.0
  S2-  S2  1  0.26447000  0.26447000  0.34028000  1.0
  S2-  S2  1  0.73553000  0.73553000  0.34028000  1.0
  S2-  S2  1  0.23553000  0.76447000  0.84028000  1.0
  S2-  S2  1  0.76447000  0.23553000  0.84028000  1.0
  S2-  S2  1  0.73553000  0.73553000  0.65972000  1.0
  S2-  S2  1  0.26447000  0.26447000  0.65972000  1.0
  S2-  S2  1  0.76447000  0.23553000  0.15972000  1.0
  S2-  S2  1  0.23553000  0.76447000  0.15972000  1.0
