# generated using pymatgen
data_Cu3P
_symmetry_space_group_name_H-M   'P 1'
_cell_length_a   6.95000000
_cell_length_b   6.95000000
_cell_length_c   7.12000000
_cell_angle_alpha   90.00000000
_cell_angle_beta   90.00000000
_cell_angle_gamma   120.00000000
_symmetry_Int_Tables_number   1
_chemical_formula_structural   Cu3P
_chemical_formula_sum   'Cu18 P6'
_cell_volume   297.83808751
_cell_formula_units_Z   6
loop_
 _symmetry_equiv_pos_site_id
 _symmetry_equiv_pos_as_xyz
  1  'x, y, z'
loop_
 _atom_type_symbol
 _atom_type_oxidation_number
  Cu+  1.0
  P3-  -3.0
loop_
 _atom_site_type_symbol
 _atom_site_label
 _atom_site_symmetry_multiplicity
 _atom_site_fract_x
 _atom_site_fract_y
 _atom_site_fract_z
 _atom_site_occupancy
  Cu+  Cu1  1  0.00000000  0.00000000  0.50000000  1.0
  Cu+  Cu1  1  0.00000000  0.00000000  0.00000000  1.0
  Cu+  Cu2  1  0.66666667  0.33333333  0.35000000  1.0
  Cu+  Cu2  1  0.66666667  0.33333333  0.85000000  1.0
  Cu+  Cu2  1  0.33333333  0.66666667  0.65000000  1.0
  Cu+  Cu2  1  0.33333333  0.66666667  0.15000000  1.0
  Cu+  Cu3  1  0.61000000  0.93000000  0.42000000  1.0
  Cu+  Cu3  1  0.32000000  0.39000000  0.42000000  1.0
  Cu+  Cu3  1  0.07000000  0.68000000  0.42000000  1.0
  Cu+  Cu3  1  0.61000000  0.68000000  0.92000000  1.0
  Cu+  Cu3  1  0.07000000  0.39000000  0.92000000  1.0
  Cu+  Cu3  1  0.32000000  0.93000000  0.92000000  1.0
  Cu+  Cu3  1  0.39000000  0.07000000  0.58000000  1.0
  Cu+  Cu3  1  0.68000000  0.61000000  0.58000000  1.0
  Cu+  Cu3  1  0.93000000  0.32000000  0.58000000  1.0
  Cu+  Cu3  1  0.39000000  0.32000000  0.08000000  1.0
  Cu+  Cu3  1  0.93000000  0.61000000  0.08000000  1.0
  Cu+  Cu3  1  0.68000000  0.07000000  0.08000000  1.0
  P3-  P1  1  0.33000000  0.00000000  0.25000000  1.0
  P3-  P1  1  0.67000000  0.67000000  0.25000000  1.0
  P3-  P1  1  0.00000000  0.33000000  0.25000000  1.0
  P3-  P1  1  0.33000000  0.33000000  0.75000000  1.0
  P3-  P1  1  0.00000000  0.67000000  0.75000000  1.0
  P3-  P1  1  0.67000000  0.00000000  0.75000000  1.0
