# generated using pymatgen
data_Cu3PS4
_symmetry_space_group_name_H-M   'P 1'
_cell_length_a   7.27890000
_cell_length_b   6.33410000
_cell_length_c   6.08280000
_cell_angle_alpha   90.00000000
_cell_angle_beta   90.00000000
_cell_angle_gamma   90.00000000
_symmetry_Int_Tables_number   1
_chemical_formula_structural   Cu3PS4
_chemical_formula_sum   'Cu6 P2 S8'
_cell_volume   280.44920016
_cell_formula_units_Z   2
loop_
 _symmetry_equiv_pos_site_id
 _symmetry_equiv_pos_as_xyz
  1  'x, y, z'
loop_
 _atom_type_symbol
 _atom_type_oxidation_number
  Cu+  1.0
  P5+  5.0
  S2-  -2.0
loop_
 _atom_site_type_symbol
 _atom_site_label
 _atom_site_symmetry_multiplicity
 _atom_site_fract_x
 _atom_site_fract_y
 _atom_site_fract_z
 _atom_site_occupancy
  Cu+  Cu1  1  0.00000000  0.64735000  0.08397000  1.0
  Cu+  Cu1  1  0.50000000  0.35265000  0.58397000  1.0
  Cu+  Cu2  1  0.74561000  0.17858000  0.07297000  1.0
  Cu+  Cu2  1  0.25439000  0.17858000  0.07297000  1.0
  Cu+  Cu2  1  0.75439000  0.82142000  0.57297000  1.0
  Cu+  Cu2  1  0.24561000  0.82142000  0.57297000  1.0
  P5+  P1  1  0.50000000  0.67690000  0.08530000  1.0
  P5+  P1  1  0.00000000  0.32310000  0.58530000  1.0
  S2-  S1  1  0.73320000  0.83167000  0.19680000  1.0
  S2-  S1  1  0.26680000  0.83167000  0.19680000  1.0
  S2-  S1  1  0.76680000  0.16833000  0.69680000  1.0
  S2-  S1  1  0.23320000  0.16833000  0.69680000  1.0
  S2-  S2  1  0.50000000  0.68230000  0.74470000  1.0
  S2-  S2  1  0.00000000  0.31770000  0.24470000  1.0
  S2-  S3  1  0.50000000  0.37190000  0.20400000  1.0
  S2-  S3  1  0.00000000  0.62810000  0.70400000  1.0
