# generated using pymatgen
data_Cu67.5P24
_symmetry_space_group_name_H-M   'P 1'
_cell_length_a   13.80450000
_cell_length_b   13.80450000
_cell_length_c   7.13340000
_cell_angle_alpha   90.00000000
_cell_angle_beta   90.00000000
_cell_angle_gamma   120.00000000
_symmetry_Int_Tables_number   1
_chemical_formula_structural   Cu67.5P24
_chemical_formula_sum   'Cu67.5 P24'
_cell_volume   1177.24965352
_cell_formula_units_Z   1
loop_
 _symmetry_equiv_pos_site_id
 _symmetry_equiv_pos_as_xyz
  1  'x, y, z'
loop_
 _atom_type_symbol
 _atom_type_oxidation_number
  Cu+  1.0
  P2.81-  -2.813
loop_
 _atom_site_type_symbol
 _atom_site_label
 _atom_site_symmetry_multiplicity
 _atom_site_fract_x
 _atom_site_fract_y
 _atom_site_fract_z
 _atom_site_occupancy
  Cu+  Cu1  1  0.00000000  0.00000000  0.49840700  1.0
  Cu+  Cu1  1  0.00000000  0.00000000  0.99840700  1.0
  Cu+  Cu2  1  0.50271000  0.50271000  0.51078000  1.0
  Cu+  Cu2  1  0.49729000  0.00000000  0.51078000  1.0
  Cu+  Cu2  1  0.00000000  0.49729000  0.51078000  1.0
  Cu+  Cu2  1  0.49729000  0.49729000  0.01078000  1.0
  Cu+  Cu2  1  0.50271000  0.00000000  0.01078000  1.0
  Cu+  Cu2  1  0.00000000  0.50271000  0.01078000  1.0
  Cu+  Cu3  1  0.66666667  0.33333333  0.55090000  1.0
  Cu+  Cu3  1  0.33333333  0.66666667  0.55090000  1.0
  Cu+  Cu3  1  0.33333333  0.66666667  0.05090000  1.0
  Cu+  Cu3  1  0.66666667  0.33333333  0.05090000  1.0
  Cu+  Cu4  1  0.16563000  0.83447000  0.63024000  1.0
  Cu+  Cu4  1  0.16553000  0.33116000  0.63024000  1.0
  Cu+  Cu4  1  0.66884000  0.83437000  0.63024000  1.0
  Cu+  Cu4  1  0.83447000  0.16563000  0.63024000  1.0
  Cu+  Cu4  1  0.33116000  0.16553000  0.63024000  1.0
  Cu+  Cu4  1  0.83437000  0.66884000  0.63024000  1.0
  Cu+  Cu4  1  0.83437000  0.16553000  0.13024000  1.0
  Cu+  Cu4  1  0.83447000  0.66884000  0.13024000  1.0
  Cu+  Cu4  1  0.33116000  0.16563000  0.13024000  1.0
  Cu+  Cu4  1  0.16553000  0.83437000  0.13024000  1.0
  Cu+  Cu4  1  0.66884000  0.83447000  0.13024000  1.0
  Cu+  Cu4  1  0.16563000  0.33116000  0.13024000  1.0
  Cu+  Cu6  1  0.85961000  0.85961000  0.24550000  1.0
  Cu+  Cu6  1  0.14039000  0.00000000  0.24550000  1.0
  Cu+  Cu6  1  0.00000000  0.14039000  0.24550000  1.0
  Cu+  Cu6  1  0.14039000  0.14039000  0.74550000  1.0
  Cu+  Cu6  1  0.85961000  0.00000000  0.74550000  1.0
  Cu+  Cu6  1  0.00000000  0.85961000  0.74550000  1.0
  Cu+  Cu7  1  0.35848000  0.84645000  0.24470000  1.0
  Cu+  Cu7  1  0.15355000  0.51203000  0.24470000  1.0
  Cu+  Cu7  1  0.48797000  0.64152000  0.24470000  1.0
  Cu+  Cu7  1  0.84645000  0.35848000  0.24470000  1.0
  Cu+  Cu7  1  0.51203000  0.15355000  0.24470000  1.0
  Cu+  Cu7  1  0.64152000  0.48797000  0.24470000  1.0
  Cu+  Cu7  1  0.64152000  0.15355000  0.74470000  1.0
  Cu+  Cu7  1  0.84645000  0.48797000  0.74470000  1.0
  Cu+  Cu7  1  0.51203000  0.35848000  0.74470000  1.0
  Cu+  Cu7  1  0.15355000  0.64152000  0.74470000  1.0
  Cu+  Cu7  1  0.48797000  0.84645000  0.74470000  1.0
  Cu+  Cu7  1  0.35848000  0.51203000  0.74470000  1.0
  Cu+  Cu8  1  0.31759000  0.31759000  0.90490000  1.0
  Cu+  Cu8  1  0.68241000  0.00000000  0.90490000  1.0
  Cu+  Cu8  1  0.00000000  0.68241000  0.90490000  1.0
  Cu+  Cu8  1  0.68241000  0.68241000  0.40490000  1.0
  Cu+  Cu8  1  0.31759000  0.00000000  0.40490000  1.0
  Cu+  Cu8  1  0.00000000  0.31759000  0.40490000  1.0
  Cu+  Cu9  1  0.80187000  0.80187000  0.89138000  1.0
  Cu+  Cu9  1  0.19813000  0.00000000  0.89138000  1.0
  Cu+  Cu9  1  0.00000000  0.19813000  0.89138000  1.0
  Cu+  Cu9  1  0.19813000  0.19813000  0.39138000  1.0
  Cu+  Cu9  1  0.80187000  0.00000000  0.39138000  1.0
  Cu+  Cu9  1  0.00000000  0.80187000  0.39138000  1.0
  Cu+  Cu10  1  0.30760000  0.83068000  0.89397000  1.0
  Cu+  Cu10  1  0.16932000  0.47692000  0.89397000  1.0
  Cu+  Cu10  1  0.52308000  0.69240000  0.89397000  1.0
  Cu+  Cu10  1  0.83068000  0.30760000  0.89397000  1.0
  Cu+  Cu10  1  0.47692000  0.16932000  0.89397000  1.0
  Cu+  Cu10  1  0.69240000  0.52308000  0.89397000  1.0
  Cu+  Cu10  1  0.69240000  0.16932000  0.39397000  1.0
  Cu+  Cu10  1  0.83068000  0.52308000  0.39397000  1.0
  Cu+  Cu10  1  0.47692000  0.30760000  0.39397000  1.0
  Cu+  Cu10  1  0.16932000  0.69240000  0.39397000  1.0
  Cu+  Cu10  1  0.52308000  0.83068000  0.39397000  1.0
  Cu+  Cu10  1  0.30760000  0.47692000  0.39397000  1.0
  Cu+  Cu5  1  0.36165000  0.36165000  0.24090000  0.25
  Cu+  Cu5  1  0.63835000  0.00000000  0.24090000  0.25
  Cu+  Cu5  1  0.00000000  0.63835000  0.24090000  0.25
  Cu+  Cu5  1  0.63835000  0.63835000  0.74090000  0.25
  Cu+  Cu5  1  0.36165000  0.00000000  0.74090000  0.25
  Cu+  Cu5  1  0.00000000  0.36165000  0.74090000  0.25
  P2.81-  P1  1  0.33778000  0.33778000  0.57330000  1.0
  P2.81-  P1  1  0.66222000  0.00000000  0.57330000  1.0
  P2.81-  P1  1  0.00000000  0.66222000  0.57330000  1.0
  P2.81-  P1  1  0.66222000  0.66222000  0.07330000  1.0
  P2.81-  P1  1  0.33778000  0.00000000  0.07330000  1.0
  P2.81-  P1  1  0.00000000  0.33778000  0.07330000  1.0
  P2.81-  P2  1  0.83405000  0.83405000  0.57060000  1.0
  P2.81-  P2  1  0.16595000  0.00000000  0.57060000  1.0
  P2.81-  P2  1  0.00000000  0.16595000  0.57060000  1.0
  P2.81-  P2  1  0.16595000  0.16595000  0.07060000  1.0
  P2.81-  P2  1  0.83405000  0.00000000  0.07060000  1.0
  P2.81-  P2  1  0.00000000  0.83405000  0.07060000  1.0
  P2.81-  P3  1  0.33105000  0.83367000  0.56920000  1.0
  P2.81-  P3  1  0.16633000  0.49738000  0.56920000  1.0
  P2.81-  P3  1  0.50262000  0.66895000  0.56920000  1.0
  P2.81-  P3  1  0.83367000  0.33105000  0.56920000  1.0
  P2.81-  P3  1  0.49738000  0.16633000  0.56920000  1.0
  P2.81-  P3  1  0.66895000  0.50262000  0.56920000  1.0
  P2.81-  P3  1  0.66895000  0.16633000  0.06920000  1.0
  P2.81-  P3  1  0.83367000  0.50262000  0.06920000  1.0
  P2.81-  P3  1  0.49738000  0.33105000  0.06920000  1.0
  P2.81-  P3  1  0.16633000  0.66895000  0.06920000  1.0
  P2.81-  P3  1  0.50262000  0.83367000  0.06920000  1.0
  P2.81-  P3  1  0.33105000  0.49738000  0.06920000  1.0
