# generated using pymatgen
data_Cu7PS6
_symmetry_space_group_name_H-M   'P 1'
_cell_length_a   9.66900000
_cell_length_b   9.66900000
_cell_length_c   9.66900000
_cell_angle_alpha   90.00000000
_cell_angle_beta   90.00000000
_cell_angle_gamma   90.00000000
_symmetry_Int_Tables_number   1
_chemical_formula_structural   Cu7PS6
_chemical_formula_sum   'Cu28 P4 S24'
_cell_volume   903.95056531
_cell_formula_units_Z   4
loop_
 _symmetry_equiv_pos_site_id
 _symmetry_equiv_pos_as_xyz
  1  'x, y, z'
loop_
 _atom_type_symbol
 _atom_type_oxidation_number
  Cu+  1.0
  P5+  5.0
  S2-  -2.0
loop_
 _atom_site_type_symbol
 _atom_site_label
 _atom_site_symmetry_multiplicity
 _atom_site_fract_x
 _atom_site_fract_y
 _atom_site_fract_z
 _atom_site_occupancy
  Cu+  Cu1  1  0.23500000  0.92500000  0.90300000  1.0
  Cu+  Cu1  1  0.09700000  0.73500000  0.57500000  1.0
  Cu+  Cu1  1  0.42500000  0.59700000  0.76500000  1.0
  Cu+  Cu1  1  0.73500000  0.57500000  0.09700000  1.0
  Cu+  Cu1  1  0.59700000  0.76500000  0.42500000  1.0
  Cu+  Cu1  1  0.92500000  0.90300000  0.23500000  1.0
  Cu+  Cu1  1  0.76500000  0.42500000  0.59700000  1.0
  Cu+  Cu1  1  0.90300000  0.23500000  0.92500000  1.0
  Cu+  Cu1  1  0.57500000  0.09700000  0.73500000  1.0
  Cu+  Cu1  1  0.26500000  0.07500000  0.40300000  1.0
  Cu+  Cu1  1  0.40300000  0.26500000  0.07500000  1.0
  Cu+  Cu1  1  0.07500000  0.40300000  0.26500000  1.0
  Cu+  Cu2  1  0.00900000  0.77300000  0.98200000  1.0
  Cu+  Cu2  1  0.01800000  0.50900000  0.72700000  1.0
  Cu+  Cu2  1  0.27300000  0.51800000  0.99100000  1.0
  Cu+  Cu2  1  0.50900000  0.72700000  0.01800000  1.0
  Cu+  Cu2  1  0.51800000  0.99100000  0.27300000  1.0
  Cu+  Cu2  1  0.77300000  0.98200000  0.00900000  1.0
  Cu+  Cu2  1  0.99100000  0.27300000  0.51800000  1.0
  Cu+  Cu2  1  0.98200000  0.00900000  0.77300000  1.0
  Cu+  Cu2  1  0.72700000  0.01800000  0.50900000  1.0
  Cu+  Cu2  1  0.49100000  0.22700000  0.48200000  1.0
  Cu+  Cu2  1  0.48200000  0.49100000  0.22700000  1.0
  Cu+  Cu2  1  0.22700000  0.48200000  0.49100000  1.0
  Cu+  Cu3  1  0.35400000  0.85400000  0.64600000  1.0
  Cu+  Cu3  1  0.85400000  0.64600000  0.35400000  1.0
  Cu+  Cu3  1  0.64600000  0.35400000  0.85400000  1.0
  Cu+  Cu3  1  0.14600000  0.14600000  0.14600000  1.0
  P5+  P1  1  0.75700000  0.25700000  0.24300000  1.0
  P5+  P1  1  0.25700000  0.24300000  0.75700000  1.0
  P5+  P1  1  0.24300000  0.75700000  0.25700000  1.0
  P5+  P1  1  0.74300000  0.74300000  0.74300000  1.0
  S2-  S1  1  0.87400000  0.37400000  0.12600000  1.0
  S2-  S1  1  0.37400000  0.12600000  0.87400000  1.0
  S2-  S1  1  0.12600000  0.87400000  0.37400000  1.0
  S2-  S1  1  0.62600000  0.62600000  0.62600000  1.0
  S2-  S2  1  0.35800000  0.87700000  0.12800000  1.0
  S2-  S2  1  0.87200000  0.85800000  0.62300000  1.0
  S2-  S2  1  0.37700000  0.37200000  0.64200000  1.0
  S2-  S2  1  0.85800000  0.62300000  0.87200000  1.0
  S2-  S2  1  0.37200000  0.64200000  0.37700000  1.0
  S2-  S2  1  0.87700000  0.12800000  0.35800000  1.0
  S2-  S2  1  0.64200000  0.37700000  0.37200000  1.0
  S2-  S2  1  0.12800000  0.35800000  0.87700000  1.0
  S2-  S2  1  0.62300000  0.87200000  0.85800000  1.0
  S2-  S2  1  0.14200000  0.12300000  0.62800000  1.0
  S2-  S2  1  0.62800000  0.14200000  0.12300000  1.0
  S2-  S2  1  0.12300000  0.62800000  0.14200000  1.0
  S2-  S3  1  0.22000000  0.72000000  0.78000000  1.0
  S2-  S3  1  0.72000000  0.78000000  0.22000000  1.0
  S2-  S3  1  0.78000000  0.22000000  0.72000000  1.0
  S2-  S3  1  0.28000000  0.28000000  0.28000000  1.0
  S2-  S4  1  0.48700000  0.98700000  0.51300000  1.0
  S2-  S4  1  0.98700000  0.51300000  0.48700000  1.0
  S2-  S4  1  0.51300000  0.48700000  0.98700000  1.0
  S2-  S4  1  0.01300000  0.01300000  0.01300000  1.0
